37
0
C 0.1 0.0 0.0
C 1.6400000000000001 0.0 0.0
C -0.67 1.33 0.0
C 2.41 1.33 0.0
C 0.1 2.66 0.0
C 1.6400000000000001 2.66 0.0
H -1.75 1.51 0.0
H -0.6 3.51 0.0
H 2.3400000000000003 3.5 0.0
O 3.69 1.57 0.0
H 1.9600000000000002 -1.05 0.0
H -0.24000000000000002 -1.04 0.0
Fe 5.457032929950399 1.5343847836964 0.0
C 7.1499999999999995 -1.0 0.0
C 8.69 -1.0 0.0
C 9.459999999999999 -2.34 0.0
C 8.69 -3.67 0.0
C 7.1499999999999995 -3.67 0.0
C 6.38 -2.34 0.0
H 9.44 -0.19 0.0
H 10.54 -2.11 0.0
H 9.08 -4.7 0.0
O 6.42 -0.14 0.0
H 6.77 -4.71 0.0
H 5.3 -2.14 0.0
C 7.1499999999999995 4.07 0.0
C 8.69 4.07 0.0
C 9.459999999999999 5.4 0.0
C 8.69 6.74 0.0
C 7.1499999999999995 6.74 0.0
C 6.38 5.4 0.0
H 5.3 5.21 0.0
H 6.779999999999999 7.77 0.0
O 6.42 3.21 0.0
H 9.08 7.77 0.0
H 10.54 5.19 0.0
H 9.44 3.27 0.0
37
1
C 0.2 0.0 0.0
C 1.74 0.0 0.0
C -0.5700000000000001 1.33 0.0
C 2.5100000000000002 1.33 0.0
C 0.2 2.66 0.0
C 1.74 2.66 0.0
H -1.6500000000000001 1.51 0.0
H -0.49999999999999994 3.51 0.0
H 2.4400000000000004 3.5 0.0
O 3.79 1.57 0.0
H 2.06 -1.05 0.0
H -0.14 -1.04 0.0
Fe 5.5570329299504 1.5343847836964 0.0
C 7.25 -1.0 0.0
C 8.79 -1.0 0.0
C 9.559999999999999 -2.34 0.0
C 8.79 -3.67 0.0
C 7.25 -3.67 0.0
C 6.48 -2.34 0.0
H 9.54 -0.19 0.0
H 10.639999999999999 -2.11 0.0
H 9.18 -4.7 0.0
O 6.5200000000000005 -0.14 0.0
H 6.87 -4.71 0.0
H 5.4 -2.14 0.0
C 7.25 4.07 0.0
C 8.79 4.07 0.0
C 9.559999999999999 5.4 0.0
C 8.79 6.74 0.0
C 7.25 6.74 0.0
C 6.48 5.4 0.0
H 5.4 5.21 0.0
H 6.88 7.77 0.0
O 6.5200000000000005 3.21 0.0
H 9.18 7.77 0.0
H 10.639999999999999 5.19 0.0
H 9.54 3.27 0.0
37
2
C 0.30000000000000004 0.0 0.0
C 1.84 0.0 0.0
C -0.47 1.33 0.0
C 2.6100000000000003 1.33 0.0
C 0.30000000000000004 2.66 0.0
C 1.84 2.66 0.0
H -1.55 1.51 0.0
H -0.3999999999999999 3.51 0.0
H 2.54 3.5 0.0
O 3.8899999999999997 1.57 0.0
H 2.16 -1.05 0.0
H -0.03999999999999998 -1.04 0.0
Fe 5.657032929950399 1.5343847836964 0.0
C 7.35 -1.0 0.0
C 8.89 -1.0 0.0
C 9.66 -2.34 0.0
C 8.89 -3.67 0.0
C 7.35 -3.67 0.0
C 6.58 -2.34 0.0
H 9.64 -0.19 0.0
H 10.74 -2.11 0.0
H 9.280000000000001 -4.7 0.0
O 6.62 -0.14 0.0
H 6.97 -4.71 0.0
H 5.5 -2.14 0.0
C 7.35 4.07 0.0
C 8.89 4.07 0.0
C 9.66 5.4 0.0
C 8.89 6.74 0.0
C 7.35 6.74 0.0
C 6.58 5.4 0.0
H 5.5 5.21 0.0
H 6.9799999999999995 7.77 0.0
O 6.62 3.21 0.0
H 9.280000000000001 7.77 0.0
H 10.74 5.19 0.0
H 9.64 3.27 0.0
37
3
C 0.4 0.0 0.0
C 1.94 0.0 0.0
C -0.37 1.33 0.0
C 2.71 1.33 0.0
C 0.4 2.66 0.0
C 1.94 2.66 0.0
H -1.4500000000000002 1.51 0.0
H -0.29999999999999993 3.51 0.0
H 2.64 3.5 0.0
O 3.9899999999999998 1.57 0.0
H 2.2600000000000002 -1.05 0.0
H 0.06 -1.04 0.0
Fe 5.7570329299504 1.5343847836964 0.0
C 7.45 -1.0 0.0
C 8.99 -1.0 0.0
C 9.76 -2.34 0.0
C 8.99 -3.67 0.0
C 7.45 -3.67 0.0
C 6.680000000000001 -2.34 0.0
H 9.74 -0.19 0.0
H 10.84 -2.11 0.0
H 9.38 -4.7 0.0
O 6.720000000000001 -0.14 0.0
H 7.07 -4.71 0.0
H 5.6000000000000005 -2.14 0.0
C 7.45 4.07 0.0
C 8.99 4.07 0.0
C 9.76 5.4 0.0
C 8.99 6.74 0.0
C 7.45 6.74 0.0
C 6.680000000000001 5.4 0.0
H 5.6000000000000005 5.21 0.0
H 7.08 7.77 0.0
O 6.720000000000001 3.21 0.0
H 9.38 7.77 0.0
H 10.84 5.19 0.0
H 9.74 3.27 0.0
37
4
C 0.5 0.0 0.0
C 2.04 0.0 0.0
C -0.27 1.33 0.0
C 2.81 1.33 0.0
C 0.5 2.66 0.0
C 2.04 2.66 0.0
H -1.35 1.51 0.0
H -0.19999999999999996 3.51 0.0
H 2.74 3.5 0.0
O 4.09 1.57 0.0
H 2.3600000000000003 -1.05 0.0
H 0.15999999999999998 -1.04 0.0
Fe 5.8570329299504 1.5343847836964 0.0
C 7.55 -1.0 0.0
C 9.09 -1.0 0.0
C 9.86 -2.34 0.0
C 9.09 -3.67 0.0
C 7.55 -3.67 0.0
C 6.78 -2.34 0.0
H 9.84 -0.19 0.0
H 10.94 -2.11 0.0
H 9.48 -4.7 0.0
O 6.82 -0.14 0.0
H 7.17 -4.71 0.0
H 5.7 -2.14 0.0
C 7.55 4.07 0.0
C 9.09 4.07 0.0
C 9.86 5.4 0.0
C 9.09 6.74 0.0
C 7.55 6.74 0.0
C 6.78 5.4 0.0
H 5.7 5.21 0.0
H 7.18 7.77 0.0
O 6.82 3.21 0.0
H 9.48 7.77 0.0
H 10.94 5.19 0.0
H 9.84 3.27 0.0
37
5
C 0.6 0.0 0.0
C 2.14 0.0 0.0
C -0.17000000000000004 1.33 0.0
C 2.91 1.33 0.0
C 0.6 2.66 0.0
C 2.14 2.66 0.0
H -1.25 1.51 0.0
H -0.09999999999999998 3.51 0.0
H 2.8400000000000003 3.5 0.0
O 4.1899999999999995 1.57 0.0
H 2.46 -1.05 0.0
H 0.25999999999999995 -1.04 0.0
Fe 5.957032929950399 1.5343847836964 0.0
C 7.6499999999999995 -1.0 0.0
C 9.19 -1.0 0.0
C 9.959999999999999 -2.34 0.0
C 9.19 -3.67 0.0
C 7.6499999999999995 -3.67 0.0
C 6.88 -2.34 0.0
H 9.94 -0.19 0.0
H 11.04 -2.11 0.0
H 9.58 -4.7 0.0
O 6.92 -0.14 0.0
H 7.27 -4.71 0.0
H 5.8 -2.14 0.0
C 7.6499999999999995 4.07 0.0
C 9.19 4.07 0.0
C 9.959999999999999 5.4 0.0
C 9.19 6.74 0.0
C 7.6499999999999995 6.74 0.0
C 6.88 5.4 0.0
H 5.8 5.21 0.0
H 7.279999999999999 7.77 0.0
O 6.92 3.21 0.0
H 9.58 7.77 0.0
H 11.04 5.19 0.0
H 9.94 3.27 0.0
37
6
C 0.7 0.0 0.0
C 2.24 0.0 0.0
C -0.07000000000000006 1.33 0.0
C 3.01 1.33 0.0
C 0.7 2.66 0.0
C 2.24 2.66 0.0
H -1.1500000000000001 1.51 0.0
H 0.0 3.51 0.0
H 2.9400000000000004 3.5 0.0
O 4.29 1.57 0.0
H 2.56 -1.05 0.0
H 0.35999999999999993 -1.04 0.0
Fe 6.0570329299504 1.5343847836964 0.0
C 7.75 -1.0 0.0
C 9.29 -1.0 0.0
C 10.059999999999999 -2.34 0.0
C 9.29 -3.67 0.0
C 7.75 -3.67 0.0
C 6.98 -2.34 0.0
H 10.04 -0.19 0.0
H 11.139999999999999 -2.11 0.0
H 9.68 -4.7 0.0
O 7.0200000000000005 -0.14 0.0
H 7.37 -4.71 0.0
H 5.9 -2.14 0.0
C 7.75 4.07 0.0
C 9.29 4.07 0.0
C 10.059999999999999 5.4 0.0
C 9.29 6.74 0.0
C 7.75 6.74 0.0
C 6.98 5.4 0.0
H 5.9 5.21 0.0
H 7.38 7.77 0.0
O 7.0200000000000005 3.21 0.0
H 9.68 7.77 0.0
H 11.139999999999999 5.19 0.0
H 10.04 3.27 0.0
37
7
C 0.7999999999999999 0.0 0.0
C 2.34 0.0 0.0
C 0.029999999999999916 1.33 0.0
C 3.11 1.33 0.0
C 0.7999999999999999 2.66 0.0
C 2.34 2.66 0.0
H -1.0500000000000003 1.51 0.0
H 0.09999999999999998 3.51 0.0
H 3.04 3.5 0.0
O 4.39 1.57 0.0
H 2.66 -1.05 0.0
H 0.4599999999999999 -1.04 0.0
Fe 6.157032929950399 1.5343847836964 0.0
C 7.85 -1.0 0.0
C 9.39 -1.0 0.0
C 10.16 -2.34 0.0
C 9.39 -3.67 0.0
C 7.85 -3.67 0.0
C 7.08 -2.34 0.0
H 10.14 -0.19 0.0
H 11.24 -2.11 0.0
H 9.780000000000001 -4.7 0.0
O 7.12 -0.14 0.0
H 7.47 -4.71 0.0
H 6.0 -2.14 0.0
C 7.85 4.07 0.0
C 9.39 4.07 0.0
C 10.16 5.4 0.0
C 9.39 6.74 0.0
C 7.85 6.74 0.0
C 7.08 5.4 0.0
H 6.0 5.21 0.0
H 7.4799999999999995 7.77 0.0
O 7.12 3.21 0.0
H 9.780000000000001 7.77 0.0
H 11.24 5.19 0.0
H 10.14 3.27 0.0
37
8
C 0.8999999999999999 0.0 0.0
C 2.44 0.0 0.0
C 0.1299999999999999 1.33 0.0
C 3.21 1.33 0.0
C 0.8999999999999999 2.66 0.0
C 2.44 2.66 0.0
H -0.9500000000000002 1.51 0.0
H 0.19999999999999996 3.51 0.0
H 3.14 3.5 0.0
O 4.49 1.57 0.0
H 2.76 -1.05 0.0
H 0.5599999999999998 -1.04 0.0
Fe 6.2570329299504 1.5343847836964 0.0
C 7.949999999999999 -1.0 0.0
C 9.49 -1.0 0.0
C 10.26 -2.34 0.0
C 9.49 -3.67 0.0
C 7.949999999999999 -3.67 0.0
C 7.18 -2.34 0.0
H 10.24 -0.19 0.0
H 11.34 -2.11 0.0
H 9.88 -4.7 0.0
O 7.220000000000001 -0.14 0.0
H 7.57 -4.71 0.0
H 6.1 -2.14 0.0
C 7.949999999999999 4.07 0.0
C 9.49 4.07 0.0
C 10.26 5.4 0.0
C 9.49 6.74 0.0
C 7.949999999999999 6.74 0.0
C 7.18 5.4 0.0
H 6.1 5.21 0.0
H 7.58 7.77 0.0
O 7.220000000000001 3.21 0.0
H 9.88 7.77 0.0
H 11.34 5.19 0.0
H 10.24 3.27 0.0
37
9
C 0.9999999999999999 0.0 0.0
C 2.54 0.0 0.0
C 0.22999999999999987 1.33 0.0
C 3.31 1.33 0.0
C 0.9999999999999999 2.66 0.0
C 2.54 2.66 0.0
H -0.8500000000000002 1.51 0.0
H 0.29999999999999993 3.51 0.0
H 3.24 3.5 0.0
O 4.59 1.57 0.0
H 2.86 -1.05 0.0
H 0.6599999999999999 -1.04 0.0
Fe 6.3570329299504 1.5343847836964 0.0
C 8.049999999999999 -1.0 0.0
C 9.59 -1.0 0.0
C 10.36 -2.34 0.0
C 9.59 -3.67 0.0
C 8.049999999999999 -3.67 0.0
C 7.28 -2.34 0.0
H 10.34 -0.19 0.0
H 11.44 -2.11 0.0
H 9.98 -4.7 0.0
O 7.32 -0.14 0.0
H 7.67 -4.71 0.0
H 6.2 -2.14 0.0
C 8.049999999999999 4.07 0.0
C 9.59 4.07 0.0
C 10.36 5.4 0.0
C 9.59 6.74 0.0
C 8.049999999999999 6.74 0.0
C 7.28 5.4 0.0
H 6.2 5.21 0.0
H 7.68 7.77 0.0
O 7.32 3.21 0.0
H 9.98 7.77 0.0
H 11.44 5.19 0.0
H 10.34 3.27 0.0
37
10
C 1.0999999999999999 0.0 0.0
C 2.6399999999999997 0.0 0.0
C 0.32999999999999985 1.33 0.0
C 3.41 1.33 0.0
C 1.0999999999999999 2.66 0.0
C 2.6399999999999997 2.66 0.0
H -0.7500000000000002 1.51 0.0
H 0.3999999999999999 3.51 0.0
H 3.34 3.5 0.0
O 4.6899999999999995 1.57 0.0
H 2.96 -1.05 0.0
H 0.7599999999999998 -1.04 0.0
Fe 6.457032929950399 1.5343847836964 0.0
C 8.15 -1.0 0.0
C 9.69 -1.0 0.0
C 10.459999999999999 -2.34 0.0
C 9.69 -3.67 0.0
C 8.15 -3.67 0.0
C 7.38 -2.34 0.0
H 10.44 -0.19 0.0
H 11.54 -2.11 0.0
H 10.08 -4.7 0.0
O 7.42 -0.14 0.0
H 7.77 -4.71 0.0
H 6.3 -2.14 0.0
C 8.15 4.07 0.0
C 9.69 4.07 0.0
C 10.459999999999999 5.4 0.0
C 9.69 6.74 0.0
C 8.15 6.74 0.0
C 7.38 5.4 0.0
H 6.3 5.21 0.0
H 7.779999999999999 7.77 0.0
O 7.42 3.21 0.0
H 10.08 7.77 0.0
H 11.54 5.19 0.0
H 10.44 3.27 0.0
37
11
C 1.2 0.0 0.0
C 2.74 0.0 0.0
C 0.42999999999999994 1.33 0.0
C 3.51 1.33 0.0
C 1.2 2.66 0.0
C 2.74 2.66 0.0
H -0.6500000000000001 1.51 0.0
H 0.5 3.51 0.0
H 3.4400000000000004 3.5 0.0
O 4.79 1.57 0.0
H 3.06 -1.05 0.0
H 0.8599999999999999 -1.04 0.0
Fe 6.5570329299504 1.5343847836964 0.0
C 8.25 -1.0 0.0
C 9.79 -1.0 0.0
C 10.559999999999999 -2.34 0.0
C 9.79 -3.67 0.0
C 8.25 -3.67 0.0
C 7.48 -2.34 0.0
H 10.54 -0.19 0.0
H 11.639999999999999 -2.11 0.0
H 10.18 -4.7 0.0
O 7.5200000000000005 -0.14 0.0
H 7.87 -4.71 0.0
H 6.4 -2.14 0.0
C 8.25 4.07 0.0
C 9.79 4.07 0.0
C 10.559999999999999 5.4 0.0
C 9.79 6.74 0.0
C 8.25 6.74 0.0
C 7.48 5.4 0.0
H 6.4 5.21 0.0
H 7.88 7.77 0.0
O 7.5200000000000005 3.21 0.0
H 10.18 7.77 0.0
H 11.639999999999999 5.19 0.0
H 10.54 3.27 0.0
37
12
C 1.3 0.0 0.0
C 2.84 0.0 0.0
C 0.53 1.33 0.0
C 3.6100000000000003 1.33 0.0
C 1.3 2.66 0.0
C 2.84 2.66 0.0
H -0.55 1.51 0.0
H 0.6000000000000001 3.51 0.0
H 3.54 3.5 0.0
O 4.89 1.57 0.0
H 3.16 -1.05 0.0
H 0.96 -1.04 0.0
Fe 6.657032929950399 1.5343847836964 0.0
C 8.35 -1.0 0.0
C 9.89 -1.0 0.0
C 10.66 -2.34 0.0
C 9.89 -3.67 0.0
C 8.35 -3.67 0.0
C 7.58 -2.34 0.0
H 10.64 -0.19 0.0
H 11.74 -2.11 0.0
H 10.280000000000001 -4.7 0.0
O 7.62 -0.14 0.0
H 7.97 -4.71 0.0
H 6.5 -2.14 0.0
C 8.35 4.07 0.0
C 9.89 4.07 0.0
C 10.66 5.4 0.0
C 9.89 6.74 0.0
C 8.35 6.74 0.0
C 7.58 5.4 0.0
H 6.5 5.21 0.0
H 7.9799999999999995 7.77 0.0
O 7.62 3.21 0.0
H 10.280000000000001 7.77 0.0
H 11.74 5.19 0.0
H 10.64 3.27 0.0
37
13
C 1.4000000000000001 0.0 0.0
C 2.9400000000000004 0.0 0.0
C 0.6300000000000001 1.33 0.0
C 3.71 1.33 0.0
C 1.4000000000000001 2.66 0.0
C 2.9400000000000004 2.66 0.0
H -0.44999999999999996 1.51 0.0
H 0.7000000000000002 3.51 0.0
H 3.6400000000000006 3.5 0.0
O 4.99 1.57 0.0
H 3.2600000000000002 -1.05 0.0
H 1.06 -1.04 0.0
Fe 6.7570329299504 1.5343847836964 0.0
C 8.45 -1.0 0.0
C 9.99 -1.0 0.0
C 10.76 -2.34 0.0
C 9.99 -3.67 0.0
C 8.45 -3.67 0.0
C 7.680000000000001 -2.34 0.0
H 10.74 -0.19 0.0
H 11.84 -2.11 0.0
H 10.38 -4.7 0.0
O 7.720000000000001 -0.14 0.0
H 8.07 -4.71 0.0
H 6.6000000000000005 -2.14 0.0
C 8.45 4.07 0.0
C 9.99 4.07 0.0
C 10.76 5.4 0.0
C 9.99 6.74 0.0
C 8.45 6.74 0.0
C 7.680000000000001 5.4 0.0
H 6.6000000000000005 5.21 0.0
H 8.08 7.77 0.0
O 7.720000000000001 3.21 0.0
H 10.38 7.77 0.0
H 11.84 5.19 0.0
H 10.74 3.27 0.0
37
14
C 1.5000000000000002 0.0 0.0
C 3.04 0.0 0.0
C 0.7300000000000002 1.33 0.0
C 3.8100000000000005 1.33 0.0
C 1.5000000000000002 2.66 0.0
C 3.04 2.66 0.0
H -0.34999999999999987 1.51 0.0
H 0.8000000000000003 3.51 0.0
H 3.74 3.5 0.0
O 5.09 1.57 0.0
H 3.3600000000000003 -1.05 0.0
H 1.1600000000000001 -1.04 0.0
Fe 6.8570329299504 1.5343847836964 0.0
C 8.55 -1.0 0.0
C 10.09 -1.0 0.0
C 10.86 -2.34 0.0
C 10.09 -3.67 0.0
C 8.55 -3.67 0.0
C 7.78 -2.34 0.0
H 10.84 -0.19 0.0
H 11.94 -2.11 0.0
H 10.48 -4.7 0.0
O 7.82 -0.14 0.0
H 8.17 -4.71 0.0
H 6.7 -2.14 0.0
C 8.55 4.07 0.0
C 10.09 4.07 0.0
C 10.86 5.4 0.0
C 10.09 6.74 0.0
C 8.55 6.74 0.0
C 7.78 5.4 0.0
H 6.7 5.21 0.0
H 8.18 7.77 0.0
O 7.82 3.21 0.0
H 10.48 7.77 0.0
H 11.94 5.19 0.0
H 10.84 3.27 0.0
37
15
C 1.6000000000000003 0.0 0.0
C 3.1400000000000006 0.0 0.0
C 0.8300000000000003 1.33 0.0
C 3.91 1.33 0.0
C 1.6000000000000003 2.66 0.0
C 3.1400000000000006 2.66 0.0
H -0.24999999999999978 1.51 0.0
H 0.9000000000000004 3.51 0.0
H 3.8400000000000007 3.5 0.0
O 5.19 1.57 0.0
H 3.4600000000000004 -1.05 0.0
H 1.2600000000000002 -1.04 0.0
Fe 6.9570329299504 1.5343847836964 0.0
C 8.65 -1.0 0.0
C 10.19 -1.0 0.0
C 10.959999999999999 -2.34 0.0
C 10.19 -3.67 0.0
C 8.65 -3.67 0.0
C 7.880000000000001 -2.34 0.0
H 10.94 -0.19 0.0
H 12.04 -2.11 0.0
H 10.58 -4.7 0.0
O 7.920000000000001 -0.14 0.0
H 8.27 -4.71 0.0
H 6.800000000000001 -2.14 0.0
C 8.65 4.07 0.0
C 10.19 4.07 0.0
C 10.959999999999999 5.4 0.0
C 10.19 6.74 0.0
C 8.65 6.74 0.0
C 7.880000000000001 5.4 0.0
H 6.800000000000001 5.21 0.0
H 8.28 7.77 0.0
O 7.920000000000001 3.21 0.0
H 10.58 7.77 0.0
H 12.04 5.19 0.0
H 10.94 3.27 0.0
37
16
C 1.7000000000000004 0.0 0.0
C 3.24 0.0 0.0
C 0.9300000000000004 1.33 0.0
C 4.010000000000001 1.33 0.0
C 1.7000000000000004 2.66 0.0
C 3.24 2.66 0.0
H -0.1499999999999997 1.51 0.0
H 1.0000000000000004 3.51 0.0
H 3.9400000000000004 3.5 0.0
O 5.29 1.57 0.0
H 3.5600000000000005 -1.05 0.0
H 1.3600000000000003 -1.04 0.0
Fe 7.0570329299504 1.5343847836964 0.0
C 8.75 -1.0 0.0
C 10.290000000000001 -1.0 0.0
C 11.06 -2.34 0.0
C 10.290000000000001 -3.67 0.0
C 8.75 -3.67 0.0
C 7.98 -2.34 0.0
H 11.040000000000001 -0.19 0.0
H 12.14 -2.11 0.0
H 10.680000000000001 -4.7 0.0
O 8.020000000000001 -0.14 0.0
H 8.370000000000001 -4.71 0.0
H 6.9 -2.14 0.0
C 8.75 4.07 0.0
C 10.290000000000001 4.07 0.0
C 11.06 5.4 0.0
C 10.290000000000001 6.74 0.0
C 8.75 6.74 0.0
C 7.98 5.4 0.0
H 6.9 5.21 0.0
H 8.38 7.77 0.0
O 8.020000000000001 3.21 0.0
H 10.680000000000001 7.77 0.0
H 12.14 5.19 0.0
H 11.040000000000001 3.27 0.0
37
17
C 1.8000000000000005 0.0 0.0
C 3.3400000000000007 0.0 0.0
C 1.0300000000000005 1.33 0.0
C 4.11 1.33 0.0
C 1.8000000000000005 2.66 0.0
C 3.3400000000000007 2.66 0.0
H -0.0499999999999996 1.51 0.0
H 1.1000000000000005 3.51 0.0
H 4.040000000000001 3.5 0.0
O 5.390000000000001 1.57 0.0
H 3.6600000000000006 -1.05 0.0
H 1.4600000000000004 -1.04 0.0
Fe 7.1570329299504 1.5343847836964 0.0
C 8.85 -1.0 0.0
C 10.39 -1.0 0.0
C 11.16 -2.34 0.0
C 10.39 -3.67 0.0
C 8.85 -3.67 0.0
C 8.08 -2.34 0.0
H 11.14 -0.19 0.0
H 12.24 -2.11 0.0
H 10.780000000000001 -4.7 0.0
O 8.120000000000001 -0.14 0.0
H 8.47 -4.71 0.0
H 7.000000000000001 -2.14 0.0
C 8.85 4.07 0.0
C 10.39 4.07 0.0
C 11.16 5.4 0.0
C 10.39 6.74 0.0
C 8.85 6.74 0.0
C 8.08 5.4 0.0
H 7.000000000000001 5.21 0.0
H 8.48 7.77 0.0
O 8.120000000000001 3.21 0.0
H 10.780000000000001 7.77 0.0
H 12.24 5.19 0.0
H 11.14 3.27 0.0
37
18
C 1.9000000000000006 0.0 0.0
C 3.4400000000000004 0.0 0.0
C 1.1300000000000006 1.33 0.0
C 4.210000000000001 1.33 0.0
C 1.9000000000000006 2.66 0.0
C 3.4400000000000004 2.66 0.0
H 0.05000000000000049 1.51 0.0
H 1.2000000000000006 3.51 0.0
H 4.140000000000001 3.5 0.0
O 5.49 1.57 0.0
H 3.7600000000000007 -1.05 0.0
H 1.5600000000000005 -1.04 0.0
Fe 7.2570329299504 1.5343847836964 0.0
C 8.950000000000001 -1.0 0.0
C 10.49 -1.0 0.0
C 11.26 -2.34 0.0
C 10.49 -3.67 0.0
C 8.950000000000001 -3.67 0.0
C 8.180000000000001 -2.34 0.0
H 11.24 -0.19 0.0
H 12.34 -2.11 0.0
H 10.88 -4.7 0.0
O 8.22 -0.14 0.0
H 8.57 -4.71 0.0
H 7.1000000000000005 -2.14 0.0
C 8.950000000000001 4.07 0.0
C 10.49 4.07 0.0
C 11.26 5.4 0.0
C 10.49 6.74 0.0
C 8.950000000000001 6.74 0.0
C 8.180000000000001 5.4 0.0
H 7.1000000000000005 5.21 0.0
H 8.58 7.77 0.0
O 8.22 3.21 0.0
H 10.88 7.77 0.0
H 12.34 5.19 0.0
H 11.24 3.27 0.0
37
19
C 2.0000000000000004 0.0 0.0
C 3.5400000000000005 0.0 0.0
C 1.2300000000000004 1.33 0.0
C 4.3100000000000005 1.33 0.0
C 2.0000000000000004 2.66 0.0
C 3.5400000000000005 2.66 0.0
H 0.15000000000000036 1.51 0.0
H 1.3000000000000005 3.51 0.0
H 4.24 3.5 0.0
O 5.59 1.57 0.0
H 3.8600000000000003 -1.05 0.0
H 1.6600000000000004 -1.04 0.0
Fe 7.3570329299504 1.5343847836964 0.0
C 9.05 -1.0 0.0
C 10.59 -1.0 0.0
C 11.36 -2.34 0.0
C 10.59 -3.67 0.0
C 9.05 -3.67 0.0
C 8.280000000000001 -2.34 0.0
H 11.34 -0.19 0.0
H 12.44 -2.11 0.0
H 10.98 -4.7 0.0
O 8.32 -0.14 0.0
H 8.67 -4.71 0.0
H 7.200000000000001 -2.14 0.0
C 9.05 4.07 0.0
C 10.59 4.07 0.0
C 11.36 5.4 0.0
C 10.59 6.74 0.0
C 9.05 6.74 0.0
C 8.280000000000001 5.4 0.0
H 7.200000000000001 5.21 0.0
H 8.68 7.77 0.0
O 8.32 3.21 0.0
H 10.98 7.77 0.0
H 12.44 5.19 0.0
H 11.34 3.27 0.0
